@<TRIPOS>MOLECULE
hEO
   79    78    11     0     1 
SMALL
USER_CHARGES
@<TRIPOS>ATOM
  1 C       3.540003    1.419779    0.000002 C     1 hEO     0.2280 ****
  2 H       3.652939    0.489078    0.563808 H     1 hEO     0.0140 ****
  3 H1      2.676163    1.324830   -0.662881 H     1 hEO     0.0140 ****
  4 H2      3.365038    2.256776    0.683996 H     1 hEO     0.0140 ****
  5 O       4.692358    1.661806   -0.797234 O     1 hEO    -0.5400 ****
  6 C1      5.860355    1.796764    0.000770 C     1 hEO     0.2280 ****
  7 H3      6.046380    0.877513    0.565922 H     1 hEO     0.0210 ****
  8 H5      5.761366    2.645975    0.684925 H     1 hEO     0.0210 ****
  9 C       7.046059    2.078548   -0.937393 C     2 mEO     0.2280 ****
 10 H1      6.861151    3.000878   -1.493959 H     2 mEO     0.0210 ****
 11 H2      7.162965    1.247157   -1.640348 H     2 mEO     0.0210 ****
 12 O       8.214877    2.213603   -0.138827 O     2 mEO    -0.5400 ****
 13 C1      8.483180    1.028878    0.598520 C     2 mEO     0.2280 ****
 14 H3      8.651414    0.185649   -0.079482 H     2 mEO     0.0210 ****
 15 H5      7.655359    0.805249    1.279496 H     2 mEO     0.0210 ****
 16 C       9.742904    1.272786    1.446486 C     3 mEO     0.2280 ****
 17 H1      9.569025    2.109570    2.127813 H     3 mEO     0.0210 ****
 18 H2     10.586940    1.508181    0.789814 H     3 mEO     0.0210 ****
 19 O      10.011394    0.087227    2.184354 O     3 mEO    -0.5400 ****
 20 C1     10.242437   -1.021122    1.325621 C     3 mEO     0.2280 ****
 21 H3     11.111646   -0.835428    0.686076 H     3 mEO     0.0210 ****
 22 H5      9.358466   -1.220898    0.711040 H     3 mEO     0.0210 ****
 23 C      10.498873   -2.256953    2.204487 C     4 mEO     0.2280 ****
 24 H1      9.626454   -2.444542    2.835632 H     4 mEO     0.0210 ****
 25 H2     11.374569   -2.081019    2.837913 H     4 mEO     0.0210 ****
 26 O      10.730077   -3.366083    1.345149 O     4 mEO    -0.5400 ****
 27 C1     11.859952   -3.152982    0.510158 C     4 mEO     0.2280 ****
 28 H3     12.763165   -3.019513    1.114657 H     4 mEO     0.0210 ****
 29 H5     11.703515   -2.279367   -0.131207 H     4 mEO     0.0210 ****
 30 C      12.019162   -4.385161   -0.396390 C     5 mEO     0.2280 ****
 31 H1     11.119558   -4.510897   -1.004299 H     5 mEO     0.0210 ****
 32 H2     12.168462   -5.277388    0.220590 H     5 mEO     0.0210 ****
 33 O      13.149832   -4.171909   -1.231970 O     5 mEO    -0.5400 ****
 34 C1     14.337756   -4.004622   -0.470332 C     5 mEO     0.2280 ****
 35 H3     14.540780   -4.901284    0.124482 H     5 mEO     0.0210 ****
 36 H5     14.254295   -3.130035    0.183240 H     5 mEO     0.0210 ****
 37 C      15.498006   -3.756977   -1.449073 C     6 mEO     0.2280 ****
 38 H1     15.296314   -2.856909   -2.035457 H     6 mEO     0.0210 ****
 39 H2     15.598845   -4.614449   -2.122571 H     6 mEO     0.0210 ****
 40 O      16.686766   -3.589571   -0.686898 O     6 mEO    -0.5400 ****
 41 C1     16.977199   -4.744793    0.087925 C     6 mEO     0.2280 ****
 42 H3     17.130025   -5.613055   -0.561528 H     6 mEO     0.0210 ****
 43 H5     16.167892   -4.943573    0.798230 H     6 mEO     0.0210 ****
 44 C      18.257827   -4.466575    0.892928 C     7 mEO     0.2280 ****
 45 H1     18.099461   -3.604635    1.546096 H     7 mEO     0.0210 ****
 46 H2     19.083941   -4.255080    0.206030 H     7 mEO     0.0210 ****
 47 O      18.548463   -5.622610    1.668299 O     7 mEO    -0.5400 ****
 48 C1     18.760092   -6.762605    0.846797 C     7 mEO     0.2280 ****
 49 H3     19.611946   -6.600080    0.178251 H     7 mEO     0.0210 ****
 50 H5     17.861021   -6.987184    0.263478 H     7 mEO     0.0210 ****
 51 C      19.042464   -7.963504    1.765248 C     8 mEO     0.2280 ****
 52 H1     18.187188   -8.128250    2.425560 H     8 mEO     0.0210 ****
 53 H2     19.933813   -7.762043    2.368518 H     8 mEO     0.0210 ****
 54 O      19.254239   -9.104303    0.943169 O     8 mEO    -0.5400 ****
 55 C1     20.361535   -8.921437    0.071563 C     8 mEO     0.2280 ****
 56 H3     21.279753   -8.763471    0.646842 H     8 mEO     0.0210 ****
 57 H5     20.186234   -8.073244   -0.598409 H     8 mEO     0.0210 ****
 58 C      20.500441  -10.187118   -0.791107 C     9 mEO     0.2280 ****
 59 H1     19.585721  -10.337481   -1.370182 H     9 mEO     0.0210 ****
 60 H2     20.668024  -11.054854   -0.144598 H     9 mEO     0.0210 ****
 61 O      21.608515  -10.004123   -1.663328 O     9 mEO    -0.5400 ****
 62 C1     22.815331   -9.805888   -0.939768 C     9 mEO     0.2280 ****
 63 H3     23.036057  -10.678815   -0.316628 H     9 mEO     0.0210 ****
 64 H5     22.746533   -8.907086   -0.318119 H     9 mEO     0.0210 ****
 65 C      23.949176   -9.593951   -1.957080 C    10 mEO     0.2280 ****
 66 H1     23.729990   -8.717295   -2.571963 H    10 mEO     0.0210 ****
 67 H2     24.034784  -10.476382   -2.599739 H    10 mEO     0.0210 ****
 68 O      25.156841   -9.395575   -1.233011 O    10 mEO    -0.5400 ****
 69 C1     25.470291  -10.519846   -0.422453 C    10 mEO     0.2280 ****
 70 H3     25.608520  -11.412056   -1.042032 H    10 mEO     0.0210 ****
 71 H5     24.680187  -10.692645    0.315721 H    10 mEO     0.0210 ****
 72 C      26.770612  -10.208952    0.337780 C    11 tE1     0.2237 ****
 73 H1     26.626957   -9.322926    0.961455 H    11 tE1     0.0206 ****
 74 H2     27.578091  -10.022526   -0.377935 H    11 tE1     0.0206 ****
 75 O      27.084282  -11.334014    1.148910 O    11 tE1    -0.5503 ****
 76 C1     27.277550  -12.504241    0.366314 C    11 tE1     0.2237 ****
 77 H3     28.111364  -12.366004   -0.329868 H    11 tE1     0.0206 ****
 78 H4     27.517390  -13.332522    1.037936 H    11 tE1     0.0206 ****
 79 H5     26.364260  -12.752433   -0.184438 H    11 tE1     0.0206 ****
@<TRIPOS>BOND
    1     6     7 1
    2     6     8 1
    3     6     9 1
    4     5     6 1
    5     1     2 1
    6     1     3 1
    7     1     4 1
    8     1     5 1
    9    13    14 1
   10    13    15 1
   11    13    16 1
   12    12    13 1
   13     9    10 1
   14     9    11 1
   15     9    12 1
   16    20    21 1
   17    20    22 1
   18    20    23 1
   19    19    20 1
   20    16    17 1
   21    16    18 1
   22    16    19 1
   23    27    28 1
   24    27    29 1
   25    27    30 1
   26    26    27 1
   27    23    24 1
   28    23    25 1
   29    23    26 1
   30    34    35 1
   31    34    36 1
   32    34    37 1
   33    33    34 1
   34    30    31 1
   35    30    32 1
   36    30    33 1
   37    41    42 1
   38    41    43 1
   39    41    44 1
   40    40    41 1
   41    37    38 1
   42    37    39 1
   43    37    40 1
   44    48    49 1
   45    48    50 1
   46    48    51 1
   47    47    48 1
   48    44    45 1
   49    44    46 1
   50    44    47 1
   51    55    56 1
   52    55    57 1
   53    55    58 1
   54    54    55 1
   55    51    52 1
   56    51    53 1
   57    51    54 1
   58    62    63 1
   59    62    64 1
   60    62    65 1
   61    61    62 1
   62    58    59 1
   63    58    60 1
   64    58    61 1
   65    69    70 1
   66    69    71 1
   67    69    72 1
   68    68    69 1
   69    65    66 1
   70    65    67 1
   71    65    68 1
   72    76    77 1
   73    76    78 1
   74    76    79 1
   75    75    76 1
   76    72    73 1
   77    72    74 1
   78    72    75 1
@<TRIPOS>SUBSTRUCTURE
      1  hEO              1 ****               0 ****  **** 
      2  mEO              9 ****               0 ****  **** 
      3  mEO             16 ****               0 ****  **** 
      4  mEO             23 ****               0 ****  **** 
      5  mEO             30 ****               0 ****  **** 
      6  mEO             37 ****               0 ****  **** 
      7  mEO             44 ****               0 ****  **** 
      8  mEO             51 ****               0 ****  **** 
      9  mEO             58 ****               0 ****  **** 
     10  mEO             65 ****               0 ****  **** 
     11  tE1             72 ****               0 ****  **** 
