@<TRIPOS>MOLECULE
C1h
   91    90    20     0     1 
SMALL
USER_CHARGES
@<TRIPOS>ATOM
  1 C1      3.540003    1.419779    0.000002 C     1 C1h    -0.0921 ****
  2 H2      3.453999    0.926796   -0.973957 H     1 C1h     0.0307 ****
  3 H3      2.670270    2.072628    0.127971 H     1 C1h     0.0307 ****
  4 H1      3.504983    0.651108    0.777662 H     1 C1h     0.0307 ****
  5 C2      4.831921    2.246632    0.059061 C     2 C1m    -0.0794 ****
  6 H5      5.701578    1.595843   -0.087181 H     2 C1m     0.0397 ****
  7 H4      4.917924    2.739616    1.033020 H     2 C1m     0.0397 ****
  8 C2      4.836087    3.322351   -1.035945 C     3 C1m    -0.0794 ****
  9 H5      4.766469    2.853082   -2.023951 H     3 C1m     0.0397 ****
 10 H4      5.761115    3.906109   -0.985206 H     3 C1m     0.0397 ****
 11 C2      3.645667    4.275706   -0.862057 C     4 C1m    -0.0794 ****
 12 H5      2.704727    3.717187   -0.924543 H     4 C1m     0.0397 ****
 13 H4      3.657836    5.038606   -1.647463 H     4 C1m     0.0397 ****
 14 C2      3.708950    4.976709    0.502060 C     5 C1m    -0.0794 ****
 15 H5      3.682451    4.234126    1.307718 H     5 C1m     0.0397 ****
 16 H4      2.856077    5.653939    0.616044 H     5 C1m     0.0397 ****
 17 C2      5.002552    5.792882    0.631207 C     6 C1m    -0.0794 ****
 18 H5      5.873438    5.134304    0.536087 H     6 C1m     0.0397 ****
 19 H4      5.037883    6.288530    1.606968 H     6 C1m     0.0397 ****
 20 C2      5.077517    6.864691   -0.465074 C     7 C1m    -0.0794 ****
 21 H5      5.059538    6.392571   -1.454010 H     7 C1m     0.0397 ****
 22 H4      6.003205    7.440832   -0.364140 H     7 C1m     0.0397 ****
 23 C2      3.887429    7.828615   -0.361311 C     8 C1m    -0.0794 ****
 24 H5      2.946732    7.277805   -0.474945 H     8 C1m     0.0397 ****
 25 H4      3.950290    8.588633   -1.147088 H     8 C1m     0.0397 ****
 26 C2      3.879924    8.533829    1.002083 C     9 C1m    -0.0794 ****
 27 H5      3.801793    7.794318    1.807213 H     9 C1m     0.0397 ****
 28 H4      3.027835    9.218594    1.065860 H     9 C1m     0.0397 ****
 29 C2      5.171175    9.339554    1.201334 C    10 C1m    -0.0794 ****
 30 H5      6.040347    8.673355    1.157348 H    10 C1m     0.0397 ****
 31 H4      5.155837    9.838298    2.176036 H    10 C1m     0.0397 ****
 32 C2      5.316862   10.406854    0.107775 C    11 C1m    -0.0794 ****
 33 H5      5.350467    9.931445   -0.879176 H    11 C1m     0.0397 ****
 34 H4      6.240321   10.975549    0.258885 H    11 C1m     0.0397 ****
 35 C2      4.131140   11.381098    0.141511 C    12 C1m    -0.0794 ****
 36 H5      3.193628   10.837815   -0.023199 H    12 C1m     0.0397 ****
 37 H4      4.244607   12.137808   -0.641777 H    12 C1m     0.0397 ****
 38 C2      4.053037   12.091115    1.500187 C    13 EO      0.2280 ****
 39 H4      4.974497   12.655791    1.682586 H    13 EO      0.0210 ****
 40 H5      3.923532   11.355778    2.301145 H    13 EO      0.0210 ****
 41 O1      2.939332   12.981467    1.479951 O    13 EO     -0.5400 ****
 42 C3      2.788777   13.667301    2.721096 C    13 EO      0.2280 ****
 43 H6      3.695687   14.240061    2.941290 H    13 EO      0.0210 ****
 44 H7      2.617139   12.942078    3.524718 H    13 EO      0.0210 ****
 45 C2      1.583943   14.615072    2.596400 C    14 EO      0.2280 ****
 46 H4      0.681634   14.034171    2.373667 H    14 EO      0.0210 ****
 47 H5      1.763415   15.331798    1.788243 H    14 EO      0.0210 ****
 48 O1      1.433386   15.300904    3.837546 O    14 EO     -0.5400 ****
 49 C3      0.335586   16.210559    3.808573 C    14 EO      0.2280 ****
 50 H6     -0.590205   15.668469    3.589317 H    14 EO      0.0210 ****
 51 H7      0.502889   16.965835    3.032180 H    14 EO      0.0210 ****
 52 C2      0.239114   16.881943    5.188928 C    15 EO      0.2280 ****
 53 H4      1.170164   17.419796    5.401236 H    15 EO      0.0210 ****
 54 H5      0.076999   16.118781    5.957256 H    15 EO      0.0210 ****
 55 O1     -0.858685   17.791599    5.159954 O    15 EO     -0.5400 ****
 56 C3     -1.025406   18.458191    6.409488 C    15 EO      0.2280 ****
 57 H6     -0.114124   19.011290    6.659830 H    15 EO      0.0210 ****
 58 H7     -1.227203   17.722140    7.196078 H    15 EO      0.0210 ****
 59 C2     -2.210991   19.428641    6.275107 C    16 EO      0.2280 ****
 60 H4     -3.117754   18.867369    6.022184 H    16 EO      0.0210 ****
 61 H5     -2.001405   20.156142    5.484005 H    16 EO      0.0210 ****
 62 O1     -2.377714   20.095231    7.524642 O    16 EO     -0.5400 ****
 63 C3     -3.459092   21.024062    7.487629 C    16 EO      0.2280 ****
 64 H6     -4.388752   20.501933    7.238355 H    16 EO      0.0210 ****
 65 H7     -3.261733   21.789756    6.728698 H    16 EO      0.0210 ****
 66 C2     -3.575113   21.672848    8.877255 C    17 EO      0.2280 ****
 67 H4     -2.640111   22.190772    9.119626 H    17 EO      0.0210 ****
 68 H5     -3.767239   20.899321    9.628100 H    17 EO      0.0210 ****
 69 O1     -4.656490   22.601680    8.840243 O    17 EO     -0.5400 ****
 70 C3     -4.839884   23.249167   10.097463 C    17 EO      0.2280 ****
 71 H6     -3.925237   23.782011   10.377686 H    17 EO      0.0210 ****
 72 H7     -5.071627   22.503109   10.866169 H    17 EO      0.0210 ****
 73 C2     -6.005627   24.242128    9.954229 C    18 EO      0.2280 ****
 74 H4     -6.915836   23.701081    9.671380 H    18 EO      0.0210 ****
 75 H5     -5.766140   24.979582    9.181033 H    18 EO      0.0210 ****
 76 O1     -6.189022   24.889614   11.211450 O    18 EO     -0.5400 ****
 77 C3     -7.253482   25.837472   11.167106 C    18 EO      0.2280 ****
 78 H6     -8.186001   25.335888   10.888095 H    18 EO      0.0210 ****
 79 H7     -7.026293   26.612759   10.426477 H    18 EO      0.0210 ****
 80 C2     -7.389632   26.463842   12.565165 C    19 EO      0.2280 ****
 81 H4     -6.451690   26.961250   12.837317 H    19 EO      0.0210 ****
 82 H5     -7.611541   25.680775   13.297686 H    19 EO      0.0210 ****
 83 O1     -8.454091   27.411701   12.520821 O    19 EO     -0.5400 ****
 84 C3     -8.654644   28.040244   13.785016 C    19 EO      0.2280 ****
 85 H6     -7.737646   28.552258   14.094822 H    19 EO      0.0210 ****
 86 H7     -8.916092   27.285010   14.535005 H    19 EO      0.0210 ****
 87 C2     -9.799976   29.055519   13.633771 C    20 COH     0.2000 ****
 88 H4    -10.710953   28.536222   13.321862 H    20 COH     0.0274 ****
 89 H5     -9.531078   29.801415   12.880001 H    20 COH     0.0274 ****
 90 O1    -10.040260   29.711717   14.871070 O    20 COH    -0.7000 ****
 91 H6    -10.257339   29.028450   15.527429 H    20 COH     0.4451 ****
@<TRIPOS>BOND
    1     1     2 1
    2     1     3 1
    3     1     4 1
    4     1     5 1
    5     5     6 1
    6     5     7 1
    7     5     8 1
    8     8     9 1
    9     8    10 1
   10     8    11 1
   11    11    12 1
   12    11    13 1
   13    11    14 1
   14    14    15 1
   15    14    16 1
   16    14    17 1
   17    17    18 1
   18    17    19 1
   19    17    20 1
   20    20    21 1
   21    20    22 1
   22    20    23 1
   23    23    24 1
   24    23    25 1
   25    23    26 1
   26    26    27 1
   27    26    28 1
   28    26    29 1
   29    29    30 1
   30    29    31 1
   31    29    32 1
   32    32    33 1
   33    32    34 1
   34    32    35 1
   35    35    36 1
   36    35    37 1
   37    35    38 1
   38    42    43 1
   39    42    44 1
   40    42    45 1
   41    41    42 1
   42    38    39 1
   43    38    40 1
   44    38    41 1
   45    49    50 1
   46    49    51 1
   47    49    52 1
   48    48    49 1
   49    45    46 1
   50    45    47 1
   51    45    48 1
   52    56    57 1
   53    56    58 1
   54    56    59 1
   55    55    56 1
   56    52    53 1
   57    52    54 1
   58    52    55 1
   59    63    64 1
   60    63    65 1
   61    63    66 1
   62    62    63 1
   63    59    60 1
   64    59    61 1
   65    59    62 1
   66    70    71 1
   67    70    72 1
   68    70    73 1
   69    69    70 1
   70    66    67 1
   71    66    68 1
   72    66    69 1
   73    77    78 1
   74    77    79 1
   75    77    80 1
   76    76    77 1
   77    73    74 1
   78    73    75 1
   79    73    76 1
   80    84    85 1
   81    84    86 1
   82    84    87 1
   83    83    84 1
   84    80    81 1
   85    80    82 1
   86    80    83 1
   87    90    91 1
   88    87    88 1
   89    87    89 1
   90    87    90 1
@<TRIPOS>SUBSTRUCTURE
      1  C1h              1 ****               0 ****  **** 
      2  C1m              5 ****               0 ****  **** 
      3  C1m              8 ****               0 ****  **** 
      4  C1m             11 ****               0 ****  **** 
      5  C1m             14 ****               0 ****  **** 
      6  C1m             17 ****               0 ****  **** 
      7  C1m             20 ****               0 ****  **** 
      8  C1m             23 ****               0 ****  **** 
      9  C1m             26 ****               0 ****  **** 
     10  C1m             29 ****               0 ****  **** 
     11  C1m             32 ****               0 ****  **** 
     12  C1m             35 ****               0 ****  **** 
     13   EO             38 ****               0 ****  **** 
     14   EO             45 ****               0 ****  **** 
     15   EO             52 ****               0 ****  **** 
     16   EO             59 ****               0 ****  **** 
     17   EO             66 ****               0 ****  **** 
     18   EO             73 ****               0 ****  **** 
     19   EO             80 ****               0 ****  **** 
     20  COH             87 ****               0 ****  **** 
